Circuit: * \\S-MACBOOKPRO\SpaceTech_GARAGE\LTSpice\rsp02_LoadSW_OCP_Circuit_v1_1\rsp02_LoadSW_OCP_Circuit_v1_1.asc

Iload_tran: both pins shorted together -- ignoring.
Vioexpdr_tran: both pins shorted together -- ignoring.
Vrrx_tran: both pins shorted together -- ignoring.
Model "u1:nmos": Oxide thickness thinner than recommended for a level 3 MOSFET.
Model "u1:pmos": Oxide thickness thinner than recommended for a level 3 MOSFET.
Instance "m:u1:2": Length shorter than recommended for a level 3 MOSFET.
Instance "m:u1:1": Length shorter than recommended for a level 3 MOSFET.
Direct Newton iteration failed to find .op point.  (Use ".option noopiter" to skip.)
Starting Gmin stepping
Gmin = 10
Gmin = 1.07374
Gmin = 0.115292
Gmin = 0.0123794
Gmin = 0.00132923
Gmin = 0.000142725
Gmin = 1.5325e-005
Gmin = 1.6455e-006
Gmin = 1.76685e-007
Gmin = 1.89714e-008
Gmin = 2.03704e-009
Gmin = 2.18725e-010
Gmin = 2.34854e-011
Gmin = 2.52173e-012
Gmin = 2.70769e-013
Gmin = 0
Gmin stepping succeeded in finding the operating point.

Direct Newton iteration failed to find .op point.  (Use ".option noopiter" to skip.)
Starting Gmin stepping
Gmin = 10
Gmin = 1.07374
Gmin = 0.115292
Gmin = 0.0123794
Gmin = 0.00132923
Gmin = 0.000142725
Gmin = 1.5325e-005
Gmin = 1.6455e-006
vernier = 0.5
vernier = 0.25
Gmin = 4.79288e-007
vernier = 0.125
vernier = 0.0625
vernier = 0.03125
Gmin = 4.40685e-007
vernier = 0.0416667
vernier = 0.0555555
Gmin = 3.9663e-007
vernier = 0.074074
Gmin = 3.3621e-007
vernier = 0.0987653
vernier = 0.131687
Gmin = 2.55142e-007
vernier = 0.175583
vernier = 0.23411
Gmin = 1.6493e-007
vernier = 0.312147
Gmin = 8.36932e-008
vernier = 0.416196
vernier = 0.554928
Gmin = 2.74836e-008
vernier = 0.739903
vernier = 0.986537
Gmin = 4.92602e-009
vernier = 1
Gmin = 5.34663e-010
Gmin = 5.7409e-011
Gmin = 6.16424e-012
Gmin = 6.6188e-013
Gmin = 0
Gmin stepping succeeded in finding the operating point.

Direct Newton iteration failed to find .op point.  (Use ".option noopiter" to skip.)
Starting Gmin stepping
Gmin = 10
Gmin = 1.07374
Gmin = 0.115292
Gmin = 0.0123794
Gmin = 0.00132923
Gmin = 0.000142725
Gmin = 1.5325e-005
Gmin = 1.6455e-006
vernier = 0.5
vernier = 0.25
Gmin = 4.79288e-007
vernier = 0.125
vernier = 0.0625
vernier = 0.03125
vernier = 0.015625
vernier = 0.0078125
vernier = 0.00390625
vernier = 0.00195313
Gmin = 4.2456e-007
vernier = 0.000976563
vernier = 0.000488281
Gmin = 0
Gmin stepping failed

Starting source stepping with srcstepmethod=0
Source Step = 3.0303%
Source Step = 33.3333%
Source Step = 63.6364%
Source Step = 93.9394%
Source Step = 99.5265%
Source Step = 99.5679%
Source Step = 99.5975%
Source Step = 99.6271%
Source Step = 99.6567%
Source Step = 99.6863%
Source Step = 99.7159%
Source Step = 99.7455%
Source Step = 99.7751%
Source Step = 99.8047%
Source Step = 99.8343%
vernier = 0.00146484
Source Step = 99.8772%
Source Step = 99.9216%
Source Step = 99.966%
Source stepping succeeded in finding the operating point.


Date: Thu Oct 22 00:43:48 2020
Total elapsed time: 1.297 seconds.

tnom = 27
temp = 27
method = trap
totiter = 10059
traniter = 0
tranpoints = 0
accept = 0
rejected = 0
matrix size = 77
fillins = 139
solver = Alternate
Matrix Compiler1: 13.93 KB object code size  4.0/3.6/[2.8]
Matrix Compiler2: 10.38 KB object code size  3.4/3.2/[2.1]

